CPDS_validation_cosim/Distribution/Bus11/DSSfiles/ieee13nodecktpositive_VLN_elem.Txt

NODE-GROUND VOLTAGES BY CIRCUIT ELEMENT

Power Delivery Elements

Bus       (node ref)  Phase    Magnitude, kV (pu)    Angle

ELEMENT = "Vsource.SOURCE"
SOURCEBUS  (  1)    1           65.885 (  0.9923) /_   30.0
------------
SOURCEBUS  (  0)    0                0 (       0) /_    0.0

ELEMENT = "Line.650632"
RG60       (  2)    1            2.383 (  0.9922) /_   30.0
------------
632        (  3)    1           2.2973 (  0.9565) /_   27.7

ELEMENT = "Line.632670"
632        (  3)    1           2.2973 (  0.9565) /_   27.7
------------
670        (  4)    1            2.278 (  0.9485) /_   27.1

ELEMENT = "Line.670671"
670        (  4)    1            2.278 (  0.9485) /_   27.1
------------
671        (  5)    1            2.244 (  0.9343) /_   25.9

ELEMENT = "Line.671680"
671        (  5)    1            2.244 (  0.9343) /_   25.9
------------
680        (  6)    1            2.244 (  0.9343) /_   25.9

ELEMENT = "Line.632633"
632        (  3)    1           2.2973 (  0.9565) /_   27.7
------------
633        (  7)    1           2.2911 (  0.9539) /_   27.7

ELEMENT = "Line.632645"
632        (  3)    1           2.2973 (  0.9565) /_   27.7
------------
645        (  8)    1           2.2884 (  0.9528) /_   27.7

ELEMENT = "Line.645646"
645        (  8)    1           2.2884 (  0.9528) /_   27.7
------------
646        (  9)    1           2.2856 (  0.9516) /_   27.7

ELEMENT = "Line.692675"
692        ( 10)    1           2.2439 (  0.9343) /_   25.9
------------
675        ( 11)    1           2.2388 (  0.9321) /_   25.8

ELEMENT = "Line.671684"
671        (  5)    1            2.244 (  0.9343) /_   25.9
------------
684        ( 12)    1            2.241 (  0.9331) /_   25.9

ELEMENT = "Line.684611"
684        ( 12)    1            2.241 (  0.9331) /_   25.9
------------
611        ( 13)    1           2.2395 (  0.9324) /_   25.8

ELEMENT = "Line.684652"
684        ( 12)    1            2.241 (  0.9331) /_   25.9
------------
652        ( 14)    1           2.2368 (  0.9313) /_   25.9

ELEMENT = "Line.671692"
671        (  5)    1            2.244 (  0.9343) /_   25.9
------------
692        ( 10)    1           2.2439 (  0.9343) /_   25.9

ELEMENT = "Transformer.SUB"
SOURCEBUS  (  1)    1           65.885 (  0.9923) /_   30.0
SOURCEBUS  (  0)    0                0 (       0) /_    0.0
------------
650        ( 16)    1           2.3833 (  0.9923) /_   30.0
650        (  0)    0                0 (       0) /_    0.0

ELEMENT = "Transformer.REG1"
650        ( 16)    1           2.3833 (  0.9923) /_   30.0
650        (  0)    0                0 (       0) /_    0.0
------------
RG60       (  2)    1            2.383 (  0.9922) /_   30.0
RG60       (  0)    0                0 (       0) /_    0.0

ELEMENT = "Transformer.XFM1"
633        (  7)    1           2.2911 (  0.9539) /_   27.7
633        (  0)    0                0 (       0) /_    0.0
------------
634        ( 15)    1           0.2585 (  0.9328) /_   27.1
634        (  0)    0                0 (       0) /_    0.0

ELEMENT = "Capacitor.CAP1"
675        ( 11)    1           2.2388 (  0.9321) /_   25.8
------------
675        (  0)    0                0 (       0) /_    0.0

ELEMENT = "Capacitor.CAP2"
611        ( 13)    1           2.2395 (  0.9324) /_   25.8
------------
611        (  0)    0                0 (       0) /_    0.0

= = = = = = = = = = = = = = = = = = =  = = = = = = = = = = =  = =

Power Conversion Elements

Bus       (node ref)  Phase    Magnitude, kV (pu)    Angle

ELEMENT = "Load.671"
671        (  5)    1            2.244 (  0.9343) /_   25.9
671        (  0)    0                0 (       0) /_    0.0

ELEMENT = "Load.634A"
634        ( 15)    1           0.2585 (  0.9328) /_   27.1
634        (  0)    0                0 (       0) /_    0.0

ELEMENT = "Load.634B"
634        ( 15)    1           0.2585 (  0.9328) /_   27.1
634        (  0)    0                0 (       0) /_    0.0

ELEMENT = "Load.634C"
634        ( 15)    1           0.2585 (  0.9328) /_   27.1
634        (  0)    0                0 (       0) /_    0.0

ELEMENT = "Load.645"
645        (  8)    1           2.2884 (  0.9528) /_   27.7
645        (  0)    0                0 (       0) /_    0.0

ELEMENT = "Load.646"
646        (  9)    1           2.2856 (  0.9516) /_   27.7
646        (  0)    0                0 (       0) /_    0.0

ELEMENT = "Load.692"
692        ( 10)    1           2.2439 (  0.9343) /_   25.9
692        (  0)    0                0 (       0) /_    0.0

ELEMENT = "Load.675A"
675        ( 11)    1           2.2388 (  0.9321) /_   25.8
675        (  0)    0                0 (       0) /_    0.0

ELEMENT = "Load.675B"
675        ( 11)    1           2.2388 (  0.9321) /_   25.8
675        (  0)    0                0 (       0) /_    0.0

ELEMENT = "Load.675C"
675        ( 11)    1           2.2388 (  0.9321) /_   25.8
675        (  0)    0                0 (       0) /_    0.0

ELEMENT = "Load.611"
611        ( 13)    1           2.2395 (  0.9324) /_   25.8
611        (  0)    0                0 (       0) /_    0.0

ELEMENT = "Load.652"
652        ( 14)    1           2.2368 (  0.9313) /_   25.9
652        (  0)    0                0 (       0) /_    0.0

ELEMENT = "Load.670A"
670        (  4)    1            2.278 (  0.9485) /_   27.1
670        (  0)    0                0 (       0) /_    0.0

ELEMENT = "Load.670B"
670        (  4)    1            2.278 (  0.9485) /_   27.1
670        (  0)    0                0 (       0) /_    0.0

ELEMENT = "Load.670C"
670        (  4)    1            2.278 (  0.9485) /_   27.1
670        (  0)    0                0 (       0) /_    0.0

